52
C24N4H24
C       -1.088191768      0.801591425      0.501127267
C       -1.052750660      2.169256832      0.129022945
C       -0.332367342      2.631940495     -1.147664566
C        1.241508211      2.453399392     -1.322325130
C        2.163185098      2.198790916     -0.128590390
C        2.314171145      0.874879056      0.355671931
C        1.225641802      0.000000000      0.000000000
C        0.000000000      0.000000000      0.000000000
C        3.004349537      3.169895585      0.410605369
C        3.974609070      2.843216658      1.359724532
C        4.141388979      1.527733333      1.777458650
C        3.302615498      0.536888933      1.277620262
C       -1.943692673      0.328582124      1.494986191
C       -2.752951946      1.217345553      2.193521937
C       -2.673056315      2.574309027      1.908219101
C       -1.841382219      3.036326915      0.886984786
H       -0.749349427      1.969901685     -1.918930469
H        1.341140724      1.544646336     -1.921871780
H        2.923386483      4.198422919      0.080860254
H        4.612473062      3.623028160      1.759302460
H        4.908197147      1.274368269      2.499536292
H        3.387560892     -0.488775572      1.617154831
H       -1.938149056     -0.727992930      1.737355878
H       -3.415494574      0.854254256      2.969861025
H       -3.269688288      3.284272478      2.469010262
H       -1.826588729      4.098476158      0.680419864
C        1.852499102     -1.735969054     -1.544117387
C       -0.683763492     -1.673125345     -1.556346570
N       -0.088025008     -2.689285301     -0.884025789
N        1.201565773     -2.721070004     -0.878623606
N       -0.039503093     -1.109961201     -2.612511328
N        1.246897731     -1.140748277     -2.605200253
C       -2.163645057     -1.528252037     -1.478626513
H       -2.630323145     -2.206785901     -2.197534626
H       -2.516684198     -1.777998824     -0.478859518
H       -2.453165495     -0.506172616     -1.724361726
C        3.336003017     -1.661289714     -1.444543717
H        3.657633317     -1.886093617     -0.428145189
H        3.781358178     -2.392209347     -2.124657244
H        3.681293644     -0.666338506     -1.725780655
C       -0.753650672      4.053290316     -1.551315115
H       -1.827985211      4.175909232     -1.407007487
H       -0.262799621      4.780242834     -0.895740540
C        1.810611798      3.569267904     -2.216711038
H        1.872608905      4.520758933     -1.680590374
H        2.830056494      3.293484476     -2.499816180
C        0.925605168      3.747087388     -3.444247080
H        1.413186313      4.384333798     -4.184800855
H        0.778646267      2.768548911     -3.914480302
C       -0.427303065      4.346509793     -3.022575201
H       -0.418775677      5.429696963     -3.169917221
H       -1.225202372      3.947452708     -3.654765105
